<?xml version="1.0" encoding="UTF-8"?>

<!-- generated on 2025-04-09 14:43:46 by Eclipse SUMO netgenerate Version 1.22.0
<netgenerateConfiguration xmlns:xsi="http://www.w3.org/2001/XMLSchema-instance" xsi:noNamespaceSchemaLocation="http://sumo.dlr.de/xsd/netgenerateConfiguration.xsd">

    <grid_network>
        <grid value="true"/>
        <grid.number value="10"/>
    </grid_network>

    <output>
        <output-file value="net.net.xml"/>
    </output>

    <building_defaults>
        <default.lanenumber value="3"/>
    </building_defaults>

</netgenerateConfiguration>
-->

<net version="1.20" junctionCornerDetail="5" limitTurnSpeed="5.50" xmlns:xsi="http://www.w3.org/2001/XMLSchema-instance" xsi:noNamespaceSchemaLocation="http://sumo.dlr.de/xsd/net_file.xsd">

    <location netOffset="0.00,0.00" convBoundary="0.00,0.00,900.00,900.00" origBoundary="0.00,0.00,900.00,900.00" projParameter="!"/>

    <edge id=":A0_0" function="internal">
        <lane id=":A0_0_0" index="0" speed="11.12" length="28.38" shape="-8.00,9.60 -6.90,1.90 -3.60,-3.60 1.90,-6.90 9.60,-8.00"/>
        <lane id=":A0_0_1" index="1" speed="10.10" length="23.22" shape="-4.80,9.60 -3.90,3.30 -1.20,-1.20 3.30,-3.90 9.60,-4.80"/>
        <lane id=":A0_0_2" index="2" speed="8.96" length="18.06" shape="-1.60,9.60 -0.90,4.70 1.20,1.20 4.70,-0.90 9.60,-1.60"/>
    </edge>
    <edge id=":A0_3" function="internal">
        <lane id=":A0_3_0" index="0" speed="3.90" length="2.58" shape="9.60,8.00 8.90,8.10 8.40,8.40 8.10,8.90 8.00,9.60"/>
        <lane id=":A0_3_1" index="1" speed="6.08" length="7.74" shape="9.60,4.80 7.50,5.10 6.00,6.00 5.10,7.50 4.80,9.60"/>
        <lane id=":A0_3_2" index="2" speed="7.66" length="12.90" shape="9.60,1.60 6.10,2.10 3.60,3.60 2.10,6.10 1.60,9.60"/>
    </edge>
    <edge id=":A1_0" function="internal">
        <lane id=":A1_0_0" index="0" speed="13.89" length="27.20" shape="-8.00,113.60 -8.00,86.40"/>
        <lane id=":A1_0_1" index="1" speed="13.89" length="27.20" shape="-4.80,113.60 -4.80,86.40"/>
        <lane id=":A1_0_2" index="2" speed="13.89" length="27.20" shape="-1.60,113.60 -1.60,86.40"/>
    </edge>
    <edge id=":A1_3" function="internal">
        <lane id=":A1_3_0" index="0" speed="10.88" length="6.03" shape="-1.60,113.60 -0.89,107.62"/>
        <lane id=":A1_3_1" index="1" speed="10.36" length="5.01" shape="-1.60,113.60 -0.89,108.64"/>
    </edge>
    <edge id=":A1_5" function="internal">
        <lane id=":A1_5_0" index="0" speed="3.65" length="1.44" shape="-1.60,113.60 -0.80,112.40"/>
    </edge>
    <edge id=":A1_15" function="internal">
        <lane id=":A1_15_0" index="0" speed="10.88" length="21.12" shape="-0.89,107.62 -0.65,105.55 2.20,99.80 6.95,96.35 13.60,95.20"/>
        <lane id=":A1_15_1" index="0" speed="10.36" length="19.50" shape="-0.89,108.64 -0.65,106.95 2.20,102.20 6.95,99.35 13.60,98.40"/>
    </edge>
    <edge id=":A1_16" function="internal">
        <lane id=":A1_16_0" index="0" speed="3.65" length="3.23" shape="-0.80,112.40 0.00,112.00 0.80,112.40 1.60,113.60"/>
    </edge>
    <edge id=":A1_6" function="internal">
        <lane id=":A1_6_0" index="0" speed="6.51" length="9.03" shape="13.60,108.00 11.15,108.35 9.40,109.40 8.35,111.15 8.00,113.60"/>
    </edge>
    <edge id=":A1_7" function="internal">
        <lane id=":A1_7_0" index="0" speed="11.36" length="29.67" shape="13.60,104.80 5.55,103.65 -0.20,100.20 -3.65,94.45 -4.80,86.40"/>
        <lane id=":A1_7_1" index="1" speed="10.36" length="24.51" shape="13.60,101.60 6.95,100.65 2.20,97.80 -0.65,93.05 -1.60,86.40"/>
    </edge>
    <edge id=":A1_9" function="internal">
        <lane id=":A1_9_0" index="0" speed="3.65" length="4.67" shape="13.60,101.60 12.40,100.80 12.00,100.00 12.40,99.20 13.60,98.40"/>
    </edge>
    <edge id=":A1_10" function="internal">
        <lane id=":A1_10_0" index="0" speed="6.51" length="9.03" shape="8.00,86.40 8.35,88.85 9.40,90.60 11.15,91.65 13.60,92.00"/>
    </edge>
    <edge id=":A1_11" function="internal">
        <lane id=":A1_11_0" index="0" speed="13.89" length="27.20" shape="8.00,86.40 8.00,113.60"/>
        <lane id=":A1_11_1" index="1" speed="13.89" length="27.20" shape="4.80,86.40 4.80,113.60"/>
        <lane id=":A1_11_2" index="2" speed="13.89" length="27.20" shape="1.60,86.40 1.60,113.60"/>
    </edge>
    <edge id=":A1_14" function="internal">
        <lane id=":A1_14_0" index="0" speed="3.65" length="1.44" shape="1.60,86.40 0.80,87.60"/>
    </edge>
    <edge id=":A1_17" function="internal">
        <lane id=":A1_17_0" index="0" speed="3.65" length="3.23" shape="0.80,87.60 0.00,88.00 -0.80,87.60 -1.60,86.40"/>
    </edge>
    <edge id=":A2_0" function="internal">
        <lane id=":A2_0_0" index="0" speed="13.89" length="27.20" shape="-8.00,213.60 -8.00,186.40"/>
        <lane id=":A2_0_1" index="1" speed="13.89" length="27.20" shape="-4.80,213.60 -4.80,186.40"/>
        <lane id=":A2_0_2" index="2" speed="13.89" length="27.20" shape="-1.60,213.60 -1.60,186.40"/>
    </edge>
    <edge id=":A2_3" function="internal">
        <lane id=":A2_3_0" index="0" speed="10.88" length="6.03" shape="-1.60,213.60 -0.89,207.62"/>
        <lane id=":A2_3_1" index="1" speed="10.36" length="5.01" shape="-1.60,213.60 -0.89,208.64"/>
    </edge>
    <edge id=":A2_5" function="internal">
        <lane id=":A2_5_0" index="0" speed="3.65" length="1.44" shape="-1.60,213.60 -0.80,212.40"/>
    </edge>
    <edge id=":A2_15" function="internal">
        <lane id=":A2_15_0" index="0" speed="10.88" length="21.12" shape="-0.89,207.62 -0.65,205.55 2.20,199.80 6.95,196.35 13.60,195.20"/>
        <lane id=":A2_15_1" index="0" speed="10.36" length="19.50" shape="-0.89,208.64 -0.65,206.95 2.20,202.20 6.95,199.35 13.60,198.40"/>
    </edge>
    <edge id=":A2_16" function="internal">
        <lane id=":A2_16_0" index="0" speed="3.65" length="3.23" shape="-0.80,212.40 0.00,212.00 0.80,212.40 1.60,213.60"/>
    </edge>
    <edge id=":A2_6" function="internal">
        <lane id=":A2_6_0" index="0" speed="6.51" length="9.03" shape="13.60,208.00 11.15,208.35 9.40,209.40 8.35,211.15 8.00,213.60"/>
    </edge>
    <edge id=":A2_7" function="internal">
        <lane id=":A2_7_0" index="0" speed="11.36" length="29.67" shape="13.60,204.80 5.55,203.65 -0.20,200.20 -3.65,194.45 -4.80,186.40"/>
        <lane id=":A2_7_1" index="1" speed="10.36" length="24.51" shape="13.60,201.60 6.95,200.65 2.20,197.80 -0.65,193.05 -1.60,186.40"/>
    </edge>
    <edge id=":A2_9" function="internal">
        <lane id=":A2_9_0" index="0" speed="3.65" length="4.67" shape="13.60,201.60 12.40,200.80 12.00,200.00 12.40,199.20 13.60,198.40"/>
    </edge>
    <edge id=":A2_10" function="internal">
        <lane id=":A2_10_0" index="0" speed="6.51" length="9.03" shape="8.00,186.40 8.35,188.85 9.40,190.60 11.15,191.65 13.60,192.00"/>
    </edge>
    <edge id=":A2_11" function="internal">
        <lane id=":A2_11_0" index="0" speed="13.89" length="27.20" shape="8.00,186.40 8.00,213.60"/>
        <lane id=":A2_11_1" index="1" speed="13.89" length="27.20" shape="4.80,186.40 4.80,213.60"/>
        <lane id=":A2_11_2" index="2" speed="13.89" length="27.20" shape="1.60,186.40 1.60,213.60"/>
    </edge>
    <edge id=":A2_14" function="internal">
        <lane id=":A2_14_0" index="0" speed="3.65" length="1.44" shape="1.60,186.40 0.80,187.60"/>
    </edge>
    <edge id=":A2_17" function="internal">
        <lane id=":A2_17_0" index="0" speed="3.65" length="3.23" shape="0.80,187.60 0.00,188.00 -0.80,187.60 -1.60,186.40"/>
    </edge>
    <edge id=":A3_0" function="internal">
        <lane id=":A3_0_0" index="0" speed="13.89" length="27.20" shape="-8.00,313.60 -8.00,286.40"/>
        <lane id=":A3_0_1" index="1" speed="13.89" length="27.20" shape="-4.80,313.60 -4.80,286.40"/>
        <lane id=":A3_0_2" index="2" speed="13.89" length="27.20" shape="-1.60,313.60 -1.60,286.40"/>
    </edge>
    <edge id=":A3_3" function="internal">
        <lane id=":A3_3_0" index="0" speed="10.88" length="6.03" shape="-1.60,313.60 -0.89,307.62"/>
        <lane id=":A3_3_1" index="1" speed="10.36" length="5.01" shape="-1.60,313.60 -0.89,308.64"/>
    </edge>
    <edge id=":A3_5" function="internal">
        <lane id=":A3_5_0" index="0" speed="3.65" length="1.44" shape="-1.60,313.60 -0.80,312.40"/>
    </edge>
    <edge id=":A3_15" function="internal">
        <lane id=":A3_15_0" index="0" speed="10.88" length="21.12" shape="-0.89,307.62 -0.65,305.55 2.20,299.80 6.95,296.35 13.60,295.20"/>
        <lane id=":A3_15_1" index="0" speed="10.36" length="19.50" shape="-0.89,308.64 -0.65,306.95 2.20,302.20 6.95,299.35 13.60,298.40"/>
    </edge>
    <edge id=":A3_16" function="internal">
        <lane id=":A3_16_0" index="0" speed="3.65" length="3.23" shape="-0.80,312.40 0.00,312.00 0.80,312.40 1.60,313.60"/>
    </edge>
    <edge id=":A3_6" function="internal">
        <lane id=":A3_6_0" index="0" speed="6.51" length="9.03" shape="13.60,308.00 11.15,308.35 9.40,309.40 8.35,311.15 8.00,313.60"/>
    </edge>
    <edge id=":A3_7" function="internal">
        <lane id=":A3_7_0" index="0" speed="11.36" length="29.67" shape="13.60,304.80 5.55,303.65 -0.20,300.20 -3.65,294.45 -4.80,286.40"/>
        <lane id=":A3_7_1" index="1" speed="10.36" length="24.51" shape="13.60,301.60 6.95,300.65 2.20,297.80 -0.65,293.05 -1.60,286.40"/>
    </edge>
    <edge id=":A3_9" function="internal">
        <lane id=":A3_9_0" index="0" speed="3.65" length="4.67" shape="13.60,301.60 12.40,300.80 12.00,300.00 12.40,299.20 13.60,298.40"/>
    </edge>
    <edge id=":A3_10" function="internal">
        <lane id=":A3_10_0" index="0" speed="6.51" length="9.03" shape="8.00,286.40 8.35,288.85 9.40,290.60 11.15,291.65 13.60,292.00"/>
    </edge>
    <edge id=":A3_11" function="internal">
        <lane id=":A3_11_0" index="0" speed="13.89" length="27.20" shape="8.00,286.40 8.00,313.60"/>
        <lane id=":A3_11_1" index="1" speed="13.89" length="27.20" shape="4.80,286.40 4.80,313.60"/>
        <lane id=":A3_11_2" index="2" speed="13.89" length="27.20" shape="1.60,286.40 1.60,313.60"/>
    </edge>
    <edge id=":A3_14" function="internal">
        <lane id=":A3_14_0" index="0" speed="3.65" length="1.44" shape="1.60,286.40 0.80,287.60"/>
    </edge>
    <edge id=":A3_17" function="internal">
        <lane id=":A3_17_0" index="0" speed="3.65" length="3.23" shape="0.80,287.60 0.00,288.00 -0.80,287.60 -1.60,286.40"/>
    </edge>
    <edge id=":A4_0" function="internal">
        <lane id=":A4_0_0" index="0" speed="13.89" length="27.20" shape="-8.00,413.60 -8.00,386.40"/>
        <lane id=":A4_0_1" index="1" speed="13.89" length="27.20" shape="-4.80,413.60 -4.80,386.40"/>
        <lane id=":A4_0_2" index="2" speed="13.89" length="27.20" shape="-1.60,413.60 -1.60,386.40"/>
    </edge>
    <edge id=":A4_3" function="internal">
        <lane id=":A4_3_0" index="0" speed="10.88" length="6.03" shape="-1.60,413.60 -0.89,407.62"/>
        <lane id=":A4_3_1" index="1" speed="10.36" length="5.01" shape="-1.60,413.60 -0.89,408.64"/>
    </edge>
    <edge id=":A4_5" function="internal">
        <lane id=":A4_5_0" index="0" speed="3.65" length="1.44" shape="-1.60,413.60 -0.80,412.40"/>
    </edge>
    <edge id=":A4_15" function="internal">
        <lane id=":A4_15_0" index="0" speed="10.88" length="21.12" shape="-0.89,407.62 -0.65,405.55 2.20,399.80 6.95,396.35 13.60,395.20"/>
        <lane id=":A4_15_1" index="0" speed="10.36" length="19.50" shape="-0.89,408.64 -0.65,406.95 2.20,402.20 6.95,399.35 13.60,398.40"/>
    </edge>
    <edge id=":A4_16" function="internal">
        <lane id=":A4_16_0" index="0" speed="3.65" length="3.23" shape="-0.80,412.40 0.00,412.00 0.80,412.40 1.60,413.60"/>
    </edge>
    <edge id=":A4_6" function="internal">
        <lane id=":A4_6_0" index="0" speed="6.51" length="9.03" shape="13.60,408.00 11.15,408.35 9.40,409.40 8.35,411.15 8.00,413.60"/>
    </edge>
    <edge id=":A4_7" function="internal">
        <lane id=":A4_7_0" index="0" speed="11.36" length="29.67" shape="13.60,404.80 5.55,403.65 -0.20,400.20 -3.65,394.45 -4.80,386.40"/>
        <lane id=":A4_7_1" index="1" speed="10.36" length="24.51" shape="13.60,401.60 6.95,400.65 2.20,397.80 -0.65,393.05 -1.60,386.40"/>
    </edge>
    <edge id=":A4_9" function="internal">
        <lane id=":A4_9_0" index="0" speed="3.65" length="4.67" shape="13.60,401.60 12.40,400.80 12.00,400.00 12.40,399.20 13.60,398.40"/>
    </edge>
    <edge id=":A4_10" function="internal">
        <lane id=":A4_10_0" index="0" speed="6.51" length="9.03" shape="8.00,386.40 8.35,388.85 9.40,390.60 11.15,391.65 13.60,392.00"/>
    </edge>
    <edge id=":A4_11" function="internal">
        <lane id=":A4_11_0" index="0" speed="13.89" length="27.20" shape="8.00,386.40 8.00,413.60"/>
        <lane id=":A4_11_1" index="1" speed="13.89" length="27.20" shape="4.80,386.40 4.80,413.60"/>
        <lane id=":A4_11_2" index="2" speed="13.89" length="27.20" shape="1.60,386.40 1.60,413.60"/>
    </edge>
    <edge id=":A4_14" function="internal">
        <lane id=":A4_14_0" index="0" speed="3.65" length="1.44" shape="1.60,386.40 0.80,387.60"/>
    </edge>
    <edge id=":A4_17" function="internal">
        <lane id=":A4_17_0" index="0" speed="3.65" length="3.23" shape="0.80,387.60 0.00,388.00 -0.80,387.60 -1.60,386.40"/>
    </edge>
    <edge id=":A5_0" function="internal">
        <lane id=":A5_0_0" index="0" speed="13.89" length="27.20" shape="-8.00,513.60 -8.00,486.40"/>
        <lane id=":A5_0_1" index="1" speed="13.89" length="27.20" shape="-4.80,513.60 -4.80,486.40"/>
        <lane id=":A5_0_2" index="2" speed="13.89" length="27.20" shape="-1.60,513.60 -1.60,486.40"/>
    </edge>
    <edge id=":A5_3" function="internal">
        <lane id=":A5_3_0" index="0" speed="10.88" length="6.03" shape="-1.60,513.60 -0.89,507.62"/>
        <lane id=":A5_3_1" index="1" speed="10.36" length="5.01" shape="-1.60,513.60 -0.89,508.64"/>
    </edge>
    <edge id=":A5_5" function="internal">
        <lane id=":A5_5_0" index="0" speed="3.65" length="1.44" shape="-1.60,513.60 -0.80,512.40"/>
    </edge>
    <edge id=":A5_15" function="internal">
        <lane id=":A5_15_0" index="0" speed="10.88" length="21.12" shape="-0.89,507.62 -0.65,505.55 2.20,499.80 6.95,496.35 13.60,495.20"/>
        <lane id=":A5_15_1" index="0" speed="10.36" length="19.50" shape="-0.89,508.64 -0.65,506.95 2.20,502.20 6.95,499.35 13.60,498.40"/>
    </edge>
    <edge id=":A5_16" function="internal">
        <lane id=":A5_16_0" index="0" speed="3.65" length="3.23" shape="-0.80,512.40 0.00,512.00 0.80,512.40 1.60,513.60"/>
    </edge>
    <edge id=":A5_6" function="internal">
        <lane id=":A5_6_0" index="0" speed="6.51" length="9.03" shape="13.60,508.00 11.15,508.35 9.40,509.40 8.35,511.15 8.00,513.60"/>
    </edge>
    <edge id=":A5_7" function="internal">
        <lane id=":A5_7_0" index="0" speed="11.36" length="29.67" shape="13.60,504.80 5.55,503.65 -0.20,500.20 -3.65,494.45 -4.80,486.40"/>
        <lane id=":A5_7_1" index="1" speed="10.36" length="24.51" shape="13.60,501.60 6.95,500.65 2.20,497.80 -0.65,493.05 -1.60,486.40"/>
    </edge>
    <edge id=":A5_9" function="internal">
        <lane id=":A5_9_0" index="0" speed="3.65" length="4.67" shape="13.60,501.60 12.40,500.80 12.00,500.00 12.40,499.20 13.60,498.40"/>
    </edge>
    <edge id=":A5_10" function="internal">
        <lane id=":A5_10_0" index="0" speed="6.51" length="9.03" shape="8.00,486.40 8.35,488.85 9.40,490.60 11.15,491.65 13.60,492.00"/>
    </edge>
    <edge id=":A5_11" function="internal">
        <lane id=":A5_11_0" index="0" speed="13.89" length="27.20" shape="8.00,486.40 8.00,513.60"/>
        <lane id=":A5_11_1" index="1" speed="13.89" length="27.20" shape="4.80,486.40 4.80,513.60"/>
        <lane id=":A5_11_2" index="2" speed="13.89" length="27.20" shape="1.60,486.40 1.60,513.60"/>
    </edge>
    <edge id=":A5_14" function="internal">
        <lane id=":A5_14_0" index="0" speed="3.65" length="1.44" shape="1.60,486.40 0.80,487.60"/>
    </edge>
    <edge id=":A5_17" function="internal">
        <lane id=":A5_17_0" index="0" speed="3.65" length="3.23" shape="0.80,487.60 0.00,488.00 -0.80,487.60 -1.60,486.40"/>
    </edge>
    <edge id=":A6_0" function="internal">
        <lane id=":A6_0_0" index="0" speed="13.89" length="27.20" shape="-8.00,613.60 -8.00,586.40"/>
        <lane id=":A6_0_1" index="1" speed="13.89" length="27.20" shape="-4.80,613.60 -4.80,586.40"/>
        <lane id=":A6_0_2" index="2" speed="13.89" length="27.20" shape="-1.60,613.60 -1.60,586.40"/>
    </edge>
    <edge id=":A6_3" function="internal">
        <lane id=":A6_3_0" index="0" speed="10.88" length="6.03" shape="-1.60,613.60 -0.89,607.62"/>
        <lane id=":A6_3_1" index="1" speed="10.36" length="5.01" shape="-1.60,613.60 -0.89,608.64"/>
    </edge>
    <edge id=":A6_5" function="internal">
        <lane id=":A6_5_0" index="0" speed="3.65" length="1.44" shape="-1.60,613.60 -0.80,612.40"/>
    </edge>
    <edge id=":A6_15" function="internal">
        <lane id=":A6_15_0" index="0" speed="10.88" length="21.12" shape="-0.89,607.62 -0.65,605.55 2.20,599.80 6.95,596.35 13.60,595.20"/>
        <lane id=":A6_15_1" index="0" speed="10.36" length="19.50" shape="-0.89,608.64 -0.65,606.95 2.20,602.20 6.95,599.35 13.60,598.40"/>
    </edge>
    <edge id=":A6_16" function="internal">
        <lane id=":A6_16_0" index="0" speed="3.65" length="3.23" shape="-0.80,612.40 0.00,612.00 0.80,612.40 1.60,613.60"/>
    </edge>
    <edge id=":A6_6" function="internal">
        <lane id=":A6_6_0" index="0" speed="6.51" length="9.03" shape="13.60,608.00 11.15,608.35 9.40,609.40 8.35,611.15 8.00,613.60"/>
    </edge>
    <edge id=":A6_7" function="internal">
        <lane id=":A6_7_0" index="0" speed="11.36" length="29.67" shape="13.60,604.80 5.55,603.65 -0.20,600.20 -3.65,594.45 -4.80,586.40"/>
        <lane id=":A6_7_1" index="1" speed="10.36" length="24.51" shape="13.60,601.60 6.95,600.65 2.20,597.80 -0.65,593.05 -1.60,586.40"/>
    </edge>
    <edge id=":A6_9" function="internal">
        <lane id=":A6_9_0" index="0" speed="3.65" length="4.67" shape="13.60,601.60 12.40,600.80 12.00,600.00 12.40,599.20 13.60,598.40"/>
    </edge>
    <edge id=":A6_10" function="internal">
        <lane id=":A6_10_0" index="0" speed="6.51" length="9.03" shape="8.00,586.40 8.35,588.85 9.40,590.60 11.15,591.65 13.60,592.00"/>
    </edge>
    <edge id=":A6_11" function="internal">
        <lane id=":A6_11_0" index="0" speed="13.89" length="27.20" shape="8.00,586.40 8.00,613.60"/>
        <lane id=":A6_11_1" index="1" speed="13.89" length="27.20" shape="4.80,586.40 4.80,613.60"/>
        <lane id=":A6_11_2" index="2" speed="13.89" length="27.20" shape="1.60,586.40 1.60,613.60"/>
    </edge>
    <edge id=":A6_14" function="internal">
        <lane id=":A6_14_0" index="0" speed="3.65" length="1.44" shape="1.60,586.40 0.80,587.60"/>
    </edge>
    <edge id=":A6_17" function="internal">
        <lane id=":A6_17_0" index="0" speed="3.65" length="3.23" shape="0.80,587.60 0.00,588.00 -0.80,587.60 -1.60,586.40"/>
    </edge>
    <edge id=":A7_0" function="internal">
        <lane id=":A7_0_0" index="0" speed="13.89" length="27.20" shape="-8.00,713.60 -8.00,686.40"/>
        <lane id=":A7_0_1" index="1" speed="13.89" length="27.20" shape="-4.80,713.60 -4.80,686.40"/>
        <lane id=":A7_0_2" index="2" speed="13.89" length="27.20" shape="-1.60,713.60 -1.60,686.40"/>
    </edge>
    <edge id=":A7_3" function="internal">
        <lane id=":A7_3_0" index="0" speed="10.88" length="6.03" shape="-1.60,713.60 -0.89,707.62"/>
        <lane id=":A7_3_1" index="1" speed="10.36" length="5.01" shape="-1.60,713.60 -0.89,708.64"/>
    </edge>
    <edge id=":A7_5" function="internal">
        <lane id=":A7_5_0" index="0" speed="3.65" length="1.44" shape="-1.60,713.60 -0.80,712.40"/>
    </edge>
    <edge id=":A7_15" function="internal">
        <lane id=":A7_15_0" index="0" speed="10.88" length="21.12" shape="-0.89,707.62 -0.65,705.55 2.20,699.80 6.95,696.35 13.60,695.20"/>
        <lane id=":A7_15_1" index="0" speed="10.36" length="19.50" shape="-0.89,708.64 -0.65,706.95 2.20,702.20 6.95,699.35 13.60,698.40"/>
    </edge>
    <edge id=":A7_16" function="internal">
        <lane id=":A7_16_0" index="0" speed="3.65" length="3.23" shape="-0.80,712.40 0.00,712.00 0.80,712.40 1.60,713.60"/>
    </edge>
    <edge id=":A7_6" function="internal">
        <lane id=":A7_6_0" index="0" speed="6.51" length="9.03" shape="13.60,708.00 11.15,708.35 9.40,709.40 8.35,711.15 8.00,713.60"/>
    </edge>
    <edge id=":A7_7" function="internal">
        <lane id=":A7_7_0" index="0" speed="11.36" length="29.67" shape="13.60,704.80 5.55,703.65 -0.20,700.20 -3.65,694.45 -4.80,686.40"/>
        <lane id=":A7_7_1" index="1" speed="10.36" length="24.51" shape="13.60,701.60 6.95,700.65 2.20,697.80 -0.65,693.05 -1.60,686.40"/>
    </edge>
    <edge id=":A7_9" function="internal">
        <lane id=":A7_9_0" index="0" speed="3.65" length="4.67" shape="13.60,701.60 12.40,700.80 12.00,700.00 12.40,699.20 13.60,698.40"/>
    </edge>
    <edge id=":A7_10" function="internal">
        <lane id=":A7_10_0" index="0" speed="6.51" length="9.03" shape="8.00,686.40 8.35,688.85 9.40,690.60 11.15,691.65 13.60,692.00"/>
    </edge>
    <edge id=":A7_11" function="internal">
        <lane id=":A7_11_0" index="0" speed="13.89" length="27.20" shape="8.00,686.40 8.00,713.60"/>
        <lane id=":A7_11_1" index="1" speed="13.89" length="27.20" shape="4.80,686.40 4.80,713.60"/>
        <lane id=":A7_11_2" index="2" speed="13.89" length="27.20" shape="1.60,686.40 1.60,713.60"/>
    </edge>
    <edge id=":A7_14" function="internal">
        <lane id=":A7_14_0" index="0" speed="3.65" length="1.44" shape="1.60,686.40 0.80,687.60"/>
    </edge>
    <edge id=":A7_17" function="internal">
        <lane id=":A7_17_0" index="0" speed="3.65" length="3.23" shape="0.80,687.60 0.00,688.00 -0.80,687.60 -1.60,686.40"/>
    </edge>
    <edge id=":A8_0" function="internal">
        <lane id=":A8_0_0" index="0" speed="13.89" length="27.20" shape="-8.00,813.60 -8.00,786.40"/>
        <lane id=":A8_0_1" index="1" speed="13.89" length="27.20" shape="-4.80,813.60 -4.80,786.40"/>
        <lane id=":A8_0_2" index="2" speed="13.89" length="27.20" shape="-1.60,813.60 -1.60,786.40"/>
    </edge>
    <edge id=":A8_3" function="internal">
        <lane id=":A8_3_0" index="0" speed="10.88" length="6.03" shape="-1.60,813.60 -0.89,807.62"/>
        <lane id=":A8_3_1" index="1" speed="10.36" length="5.01" shape="-1.60,813.60 -0.89,808.64"/>
    </edge>
    <edge id=":A8_5" function="internal">
        <lane id=":A8_5_0" index="0" speed="3.65" length="1.44" shape="-1.60,813.60 -0.80,812.40"/>
    </edge>
    <edge id=":A8_15" function="internal">
        <lane id=":A8_15_0" index="0" speed="10.88" length="21.12" shape="-0.89,807.62 -0.65,805.55 2.20,799.80 6.95,796.35 13.60,795.20"/>
        <lane id=":A8_15_1" index="0" speed="10.36" length="19.50" shape="-0.89,808.64 -0.65,806.95 2.20,802.20 6.95,799.35 13.60,798.40"/>
    </edge>
    <edge id=":A8_16" function="internal">
        <lane id=":A8_16_0" index="0" speed="3.65" length="3.23" shape="-0.80,812.40 0.00,812.00 0.80,812.40 1.60,813.60"/>
    </edge>
    <edge id=":A8_6" function="internal">
        <lane id=":A8_6_0" index="0" speed="6.51" length="9.03" shape="13.60,808.00 11.15,808.35 9.40,809.40 8.35,811.15 8.00,813.60"/>
    </edge>
    <edge id=":A8_7" function="internal">
        <lane id=":A8_7_0" index="0" speed="11.36" length="29.67" shape="13.60,804.80 5.55,803.65 -0.20,800.20 -3.65,794.45 -4.80,786.40"/>
        <lane id=":A8_7_1" index="1" speed="10.36" length="24.51" shape="13.60,801.60 6.95,800.65 2.20,797.80 -0.65,793.05 -1.60,786.40"/>
    </edge>
    <edge id=":A8_9" function="internal">
        <lane id=":A8_9_0" index="0" speed="3.65" length="4.67" shape="13.60,801.60 12.40,800.80 12.00,800.00 12.40,799.20 13.60,798.40"/>
    </edge>
    <edge id=":A8_10" function="internal">
        <lane id=":A8_10_0" index="0" speed="6.51" length="9.03" shape="8.00,786.40 8.35,788.85 9.40,790.60 11.15,791.65 13.60,792.00"/>
    </edge>
    <edge id=":A8_11" function="internal">
        <lane id=":A8_11_0" index="0" speed="13.89" length="27.20" shape="8.00,786.40 8.00,813.60"/>
        <lane id=":A8_11_1" index="1" speed="13.89" length="27.20" shape="4.80,786.40 4.80,813.60"/>
        <lane id=":A8_11_2" index="2" speed="13.89" length="27.20" shape="1.60,786.40 1.60,813.60"/>
    </edge>
    <edge id=":A8_14" function="internal">
        <lane id=":A8_14_0" index="0" speed="3.65" length="1.44" shape="1.60,786.40 0.80,787.60"/>
    </edge>
    <edge id=":A8_17" function="internal">
        <lane id=":A8_17_0" index="0" speed="3.65" length="3.23" shape="0.80,787.60 0.00,788.00 -0.80,787.60 -1.60,786.40"/>
    </edge>
    <edge id=":A9_0" function="internal">
        <lane id=":A9_0_0" index="0" speed="11.12" length="28.38" shape="9.60,908.00 1.90,906.90 -3.60,903.60 -6.90,898.10 -8.00,890.40"/>
        <lane id=":A9_0_1" index="1" speed="10.10" length="23.22" shape="9.60,904.80 3.30,903.90 -1.20,901.20 -3.90,896.70 -4.80,890.40"/>
        <lane id=":A9_0_2" index="2" speed="8.96" length="18.06" shape="9.60,901.60 4.70,900.90 1.20,898.80 -0.90,895.30 -1.60,890.40"/>
    </edge>
    <edge id=":A9_3" function="internal">
        <lane id=":A9_3_0" index="0" speed="3.90" length="2.58" shape="8.00,890.40 8.10,891.10 8.40,891.60 8.90,891.90 9.60,892.00"/>
        <lane id=":A9_3_1" index="1" speed="6.08" length="7.74" shape="4.80,890.40 5.10,892.50 6.00,894.00 7.50,894.90 9.60,895.20"/>
        <lane id=":A9_3_2" index="2" speed="7.66" length="12.90" shape="1.60,890.40 2.10,893.90 3.60,896.40 6.10,897.90 9.60,898.40"/>
    </edge>
    <edge id=":B0_0" function="internal">
        <lane id=":B0_0_0" index="0" speed="6.51" length="9.03" shape="92.00,13.60 91.65,11.15 90.60,9.40 88.85,8.35 86.40,8.00"/>
    </edge>
    <edge id=":B0_1" function="internal">
        <lane id=":B0_1_0" index="0" speed="11.36" length="29.67" shape="95.20,13.60 96.35,5.55 99.80,-0.20 105.55,-3.65 113.60,-4.80"/>
        <lane id=":B0_1_1" index="1" speed="10.36" length="24.51" shape="98.40,13.60 99.35,6.95 102.20,2.20 106.95,-0.65 113.60,-1.60"/>
    </edge>
    <edge id=":B0_3" function="internal">
        <lane id=":B0_3_0" index="0" speed="3.65" length="4.67" shape="98.40,13.60 99.20,12.40 100.00,12.00 100.80,12.40 101.60,13.60"/>
    </edge>
    <edge id=":B0_4" function="internal">
        <lane id=":B0_4_0" index="0" speed="6.51" length="9.03" shape="113.60,8.00 111.15,8.35 109.40,9.40 108.35,11.15 108.00,13.60"/>
    </edge>
    <edge id=":B0_5" function="internal">
        <lane id=":B0_5_0" index="0" speed="13.89" length="27.20" shape="113.60,8.00 86.40,8.00"/>
        <lane id=":B0_5_1" index="1" speed="13.89" length="27.20" shape="113.60,4.80 86.40,4.80"/>
        <lane id=":B0_5_2" index="2" speed="13.89" length="27.20" shape="113.60,1.60 86.40,1.60"/>
    </edge>
    <edge id=":B0_8" function="internal">
        <lane id=":B0_8_0" index="0" speed="3.65" length="1.44" shape="113.60,1.60 112.40,0.80"/>
    </edge>
    <edge id=":B0_15" function="internal">
        <lane id=":B0_15_0" index="0" speed="3.65" length="3.23" shape="112.40,0.80 112.00,0.00 112.40,-0.80 113.60,-1.60"/>
    </edge>
    <edge id=":B0_9" function="internal">
        <lane id=":B0_9_0" index="0" speed="13.89" length="27.20" shape="86.40,-8.00 113.60,-8.00"/>
        <lane id=":B0_9_1" index="1" speed="13.89" length="27.20" shape="86.40,-4.80 113.60,-4.80"/>
        <lane id=":B0_9_2" index="2" speed="13.89" length="27.20" shape="86.40,-1.60 113.60,-1.60"/>
    </edge>
    <edge id=":B0_12" function="internal">
        <lane id=":B0_12_0" index="0" speed="10.88" length="6.03" shape="86.40,-1.60 92.38,-0.89"/>
        <lane id=":B0_12_1" index="1" speed="10.36" length="5.01" shape="86.40,-1.60 91.36,-0.89"/>
    </edge>
    <edge id=":B0_14" function="internal">
        <lane id=":B0_14_0" index="0" speed="3.65" length="1.44" shape="86.40,-1.60 87.60,-0.80"/>
    </edge>
    <edge id=":B0_16" function="internal">
        <lane id=":B0_16_0" index="0" speed="10.88" length="21.12" shape="92.38,-0.89 94.45,-0.65 100.20,2.20 103.65,6.95 104.80,13.60"/>
        <lane id=":B0_16_1" index="0" speed="10.36" length="19.50" shape="91.36,-0.89 93.05,-0.65 97.80,2.20 100.65,6.95 101.60,13.60"/>
    </edge>
    <edge id=":B0_17" function="internal">
        <lane id=":B0_17_0" index="0" speed="3.65" length="3.23" shape="87.60,-0.80 88.00,0.00 87.60,0.80 86.40,1.60"/>
    </edge>
    <edge id=":B1_0" function="internal">
        <lane id=":B1_0_0" index="0" speed="6.51" length="9.03" shape="92.00,113.60 91.65,111.15 90.60,109.40 88.85,108.35 86.40,108.00"/>
    </edge>
    <edge id=":B1_1" function="internal">
        <lane id=":B1_1_0" index="0" speed="13.89" length="27.20" shape="92.00,113.60 92.00,86.40"/>
        <lane id=":B1_1_1" index="1" speed="13.89" length="27.20" shape="95.20,113.60 95.20,86.40"/>
        <lane id=":B1_1_2" index="2" speed="13.89" length="27.20" shape="98.40,113.60 98.40,86.40"/>
    </edge>
    <edge id=":B1_4" function="internal">
        <lane id=":B1_4_0" index="0" speed="10.36" length="5.01" shape="98.40,113.60 99.11,108.64"/>
    </edge>
    <edge id=":B1_5" function="internal">
        <lane id=":B1_5_0" index="0" speed="3.65" length="1.44" shape="98.40,113.60 99.20,112.40"/>
    </edge>
    <edge id=":B1_24" function="internal">
        <lane id=":B1_24_0" index="0" speed="10.36" length="19.50" shape="99.11,108.64 99.35,106.95 102.20,102.20 106.95,99.35 113.60,98.40"/>
    </edge>
    <edge id=":B1_25" function="internal">
        <lane id=":B1_25_0" index="0" speed="3.65" length="3.23" shape="99.20,112.40 100.00,112.00 100.80,112.40 101.60,113.60"/>
    </edge>
    <edge id=":B1_6" function="internal">